<?xml version="1.0" encoding="UTF-8"?>

<!-- generated on 2023-05-20 16:20:53 by Eclipse SUMO netedit Version 1.12.0
-->

<routes xmlns:xsi="http://www.w3.org/2001/XMLSchema-instance" xsi:noNamespaceSchemaLocation="http://sumo.dlr.de/xsd/routes_file.xsd">
    <vType id= "Auto" jmDriveAfterRedTime="100" jmDriveRedSpeed="15.0" accel="7.60000" decel="7.600000" sigma="0.000" maxSpeed = "30.0000" length="5.000000" color="1,0,0" vClass="passenger" minGap="1.0" tau="1.0" laneChangeModel="LC2013"/>
    <vType id= "Car" accel="1.0000000" decel="1.6000000" sigma="0.1" maxSpeed = "15.00" length="4.000000" color="0,1,0" vClass="passenger" minGap="1.0" tau="1.0" laneChangeModel="LC2013" lcOpposite="1" lcCooperative="0.1" lcSpeedGain="0.01" lcStrategic="100000" lcKeepRight="100000"/>
    <vType id= "Car1" accel="1.000000" decel="2.00000" sigma="0.01" maxSpeed = "14.00" length="4.000000" color="0,1,1" vClass="passenger" minGap="1.0" tau="1.0" laneChangeModel="LC2013" lcOpposite="1" lcCooperative="0.1" lcSpeedGain="0.01" lcStrategic="100000" lcKeepRight="100000"/>
    <vType id= "Car2" accel="2.000000" decel="3.00000" sigma="0.1" maxSpeed = "13.00" length="4.000000" color="1,1,1" vClass="passenger" minGap="1.0" tau="1.0" laneChangeModel="LC2013" lcOpposite="1" lcCooperative="0.1" lcSpeedGain="0.03" lcStrategic="100000" lcKeepRight="100000"/>
    <vType id= "Car3" jmDriveAfterRedTime="10" jmDriveRedSpeed="15.0" accel="5.600000" decel="6.0000" sigma="0.0100" maxSpeed = "16.00" length="4.000000" color="1,0,1" vClass="passenger" minGap="1.0" tau="1.0" laneChangeModel="LC2013" lcOpposite="1" lcCooperative="0.1" lcSpeedGain="0.05" lcStrategic="100000" lcKeepRight="100000"/>
    <vType id= "Ambulance1" jmDriveAfterRedTime="15" jmDriveRedSpeed="14.0" accel="5.600000" decel="6.0000" sigma="0.100" maxSpeed = "16.00" length="4.000000" color="1,1,0" vClass="passenger" minGap="1.0" tau="1.0" laneChangeModel="LC2013" lcOpposite="1" lcCooperative="0.1" lcSpeedGain="0.05" lcStrategic="100000" lcKeepRight="100000"/>
    <vType id= "Ambulance2" jmDriveAfterRedTime="20" jmDriveRedSpeed="15.0" accel="5.000000" decel="6.6000" sigma="0.0100" maxSpeed = "16.00" length="4.000000" color="1,1,1" vClass="passenger" minGap="1.0" tau="1.0" laneChangeModel="LC2013" lcOpposite="1" lcCooperative="0.1" lcSpeedGain="0.05" lcStrategic="100000" lcKeepRight="100000"/>
    <vType id= "Car4" accel="2.000000" decel="3.00000" sigma="0.1" maxSpeed = "16.00" length="4.000000" color="1,1,1" vClass="passenger" minGap="1.0" tau="1.0" laneChangeModel="LC2013" lcOpposite="1" lcCooperative="0.1" lcSpeedGain="0.03" lcStrategic="100000" lcKeepRight="100000"/>
    <vType id= "Car5" accel="3.000000" decel="4.00000" sigma="0.01" maxSpeed = "18.00" length="4.000000" color="1,0,1" vClass="passenger" minGap="1.0" tau="1.0" laneChangeModel="LC2013" lcOpposite="1" lcCooperative="0.1" lcSpeedGain="0.03" lcStrategic="100000" lcKeepRight="100000"/>
    <vType id= "Car6" accel="1.000000" decel="2.00000" sigma="0.1" maxSpeed = "20.00" length="4.000000" color="0,1,0" vClass="passenger" minGap="1.0" tau="1.0" laneChangeModel="LC2013" lcOpposite="1" lcCooperative="0.1" lcSpeedGain="0.03" lcStrategic="100000" lcKeepRight="100000"/>
    <vType id= "Car7" accel="4.000000" decel="5.00000" sigma="0.01" maxSpeed = "30.00" length="4.000000" color="0,1,1" vClass="passenger" minGap="1.0" tau="1.0" laneChangeModel="LC2013" lcOpposite="1" lcCooperative="0.1" lcSpeedGain="0.03" lcStrategic="100000" lcKeepRight="100000"/>


    <flow id="f_0" begin="0.00" from="-E1" to="-E2" end="3600.00" probability="0.5" departLane="1" arrivalLane="1" type="Car"/>
    <flow id="f_1" begin="0.00" from="-E3" to="-E0" end="3600.00" probability="0.1" departLane="1" arrivalLane="1" type="Car1"/>
    <flow id="f_2" begin="0.00" from="E2" to="E1" end="3600.00" probability="0.5" departLane="1" arrivalLane="1" type="Car2"/>
    <flow id="f_3" begin="0.00" from="E7" to="E8" end="3600.00" probability="0.1" departLane="0" arrivalLane="0" type="Car3"/>
    <flow id="f_4" begin="0.00" from="E10" to="E11" end="3600.00" probability="0.5" departLane="1" arrivalLane="1" type="Car"/>
    <flow id="f_5" begin="0.00" from="-E11" to="-E10" end="3600.00" probability="0.1" departLane="1" arrivalLane="1" type="Car1"/>
    <flow id="f_6" begin="0.00" from="-E9" to="E11" end="3600.00" probability="0.5" departLane="2" arrivalLane="2" type="Car2"/>
    <flow id="f_7" begin="0.00" from="-E12" to="E14" end="3600.00" probability="0.05" departLane="1" arrivalLane="1" type="Car3"/>
    <flow id="f_8" begin="0.00" from="-E12" to="E14" end="3600.00" probability="0.05" departLane="1" arrivalLane="1" type="Ambulance1"/>
    <flow id="f_9" begin="0.00" from="-E12" to="E14" end="3600.00" probability="0.2" departLane="1" arrivalLane="1" type="Ambulance2"/>
    <flow id="f_10" begin="0.00" from="E17" to="E18" end="3600.00" probability="0.5" departLane="0" arrivalLane="3" type="Car4"/>
    <flow id="f_11" begin="0.00" from="E18" to="E20" end="3600.00" probability="0.3" departLane="1" arrivalLane="2" type="Car5"/>
    <flow id="f_12" begin="0.00" from="E18" to="E20" end="3600.00" probability="0.1" departLane="2" arrivalLane="1" type="Car6"/>
    <flow id="f_13" begin="0.00" from="E18" to="E20" end="3600.00" probability="0.1" departLane="3" arrivalLane="0" type="Car7"/>


    <route id="navigation" edges= "E0 -E2 E8 E9 E13 E16 E18 E19"/>
    <vehicle id="Auto" color="1,0,0" departLane="2" depart="50" type="Auto" route="navigation"/>
</routes>
