<?xml version="1.0" encoding="UTF-8"?>

<!-- generated on 2023-05-21 18:09:49 by Eclipse SUMO netedit Version 1.12.0
<configuration xmlns:xsi="http://www.w3.org/2001/XMLSchema-instance" xsi:noNamespaceSchemaLocation="http://sumo.dlr.de/xsd/netconvertConfiguration.xsd">

    <input>
        <sumo-net-file value="D:\sumo_map\Intersection.net.xml"/>
    </input>

    <output>
        <output-file value="D:\sumo_map\Intersection.net.xml"/>
    </output>

    <processing>
        <geometry.min-radius.fix.railways value="false"/>
        <geometry.max-grade.fix value="false"/>
        <offset.disable-normalization value="true"/>
        <lefthand value="false"/>
    </processing>

    <junctions>
        <no-turnarounds value="true"/>
        <junctions.corner-detail value="5"/>
        <junctions.limit-turn-speed value="5.5"/>
        <rectangular-lane-cut value="false"/>
    </junctions>

    <pedestrian>
        <walkingareas value="false"/>
    </pedestrian>

    <report>
        <aggregate-warnings value="5"/>
    </report>

</configuration>
-->

<net version="1.9" junctionCornerDetail="5" limitTurnSpeed="5.50" xmlns:xsi="http://www.w3.org/2001/XMLSchema-instance" xsi:noNamespaceSchemaLocation="http://sumo.dlr.de/xsd/net_file.xsd">

    <location netOffset="0.00,0.00" convBoundary="-500.00,-200.00,500.00,500.00" origBoundary="-10000000000.00,-10000000000.00,10000000000.00,10000000000.00" projParameter="!"/>

    <edge id=":J1_0" function="internal">
        <lane id=":J1_0_0" index="0" speed="6.51" length="9.03" shape="-8.00,13.60 -8.35,11.15 -9.40,9.40 -11.15,8.35 -13.60,8.00"/>
    </edge>
    <edge id=":J1_1" function="internal">
        <lane id=":J1_1_0" index="0" speed="30.00" length="27.20" shape="-8.00,13.60 -8.00,-13.60"/>
        <lane id=":J1_1_1" index="1" speed="30.00" length="27.20" shape="-4.80,13.60 -4.80,-13.60"/>
        <lane id=":J1_1_2" index="2" speed="30.00" length="27.20" shape="-1.60,13.60 -1.60,-13.60"/>
    </edge>
    <edge id=":J1_4" function="internal">
        <lane id=":J1_4_0" index="0" speed="10.36" length="5.01" shape="-1.60,13.60 -0.89,8.64"/>
    </edge>
    <edge id=":J1_20" function="internal">
        <lane id=":J1_20_0" index="0" speed="10.36" length="19.50" shape="-0.89,8.64 -0.65,6.95 2.20,2.20 6.95,-0.65 13.60,-1.60"/>
    </edge>
    <edge id=":J1_5" function="internal">
        <lane id=":J1_5_0" index="0" speed="6.51" length="9.03" shape="13.60,8.00 11.15,8.35 9.40,9.40 8.35,11.15 8.00,13.60"/>
    </edge>
    <edge id=":J1_6" function="internal">
        <lane id=":J1_6_0" index="0" speed="30.00" length="27.20" shape="13.60,8.00 -13.60,8.00"/>
        <lane id=":J1_6_1" index="1" speed="30.00" length="27.20" shape="13.60,4.80 -13.60,4.80"/>
        <lane id=":J1_6_2" index="2" speed="30.00" length="27.20" shape="13.60,1.60 -13.60,1.60"/>
    </edge>
    <edge id=":J1_9" function="internal">
        <lane id=":J1_9_0" index="0" speed="10.36" length="24.51" shape="13.60,1.60 6.95,0.65 2.20,-2.20 -0.65,-6.95 -1.60,-13.60"/>
    </edge>
    <edge id=":J1_10" function="internal">
        <lane id=":J1_10_0" index="0" speed="6.51" length="9.03" shape="8.00,-13.60 8.35,-11.15 9.40,-9.40 11.15,-8.35 13.60,-8.00"/>
    </edge>
    <edge id=":J1_11" function="internal">
        <lane id=":J1_11_0" index="0" speed="30.00" length="27.20" shape="8.00,-13.60 8.00,13.60"/>
        <lane id=":J1_11_1" index="1" speed="30.00" length="27.20" shape="4.80,-13.60 4.80,13.60"/>
        <lane id=":J1_11_2" index="2" speed="30.00" length="27.20" shape="1.60,-13.60 1.60,13.60"/>
    </edge>
    <edge id=":J1_14" function="internal">
        <lane id=":J1_14_0" index="0" speed="10.88" length="6.03" shape="1.60,-13.60 0.89,-7.62"/>
    </edge>
    <edge id=":J1_21" function="internal">
        <lane id=":J1_21_0" index="0" speed="10.88" length="21.12" shape="0.89,-7.62 0.65,-5.55 -2.20,0.20 -6.95,3.65 -13.60,4.80"/>
    </edge>
    <edge id=":J1_15" function="internal">
        <lane id=":J1_15_0" index="0" speed="6.51" length="9.03" shape="-13.60,-8.00 -11.15,-8.35 -9.40,-9.40 -8.35,-11.15 -8.00,-13.60"/>
    </edge>
    <edge id=":J1_16" function="internal">
        <lane id=":J1_16_0" index="0" speed="30.00" length="27.20" shape="-13.60,-8.00 13.60,-8.00"/>
        <lane id=":J1_16_1" index="1" speed="30.00" length="27.20" shape="-13.60,-4.80 13.60,-4.80"/>
        <lane id=":J1_16_2" index="2" speed="30.00" length="27.20" shape="-13.60,-1.60 13.60,-1.60"/>
    </edge>
    <edge id=":J1_19" function="internal">
        <lane id=":J1_19_0" index="0" speed="10.36" length="24.51" shape="-13.60,-1.60 -6.95,-0.65 -2.20,2.20 0.65,6.95 1.60,13.60"/>
    </edge>

    <edge id="-E0" from="J1" to="J0" priority="20">
        <lane id="-E0_0" index="0" speed="30.00" length="486.40" shape="-13.60,8.00 -500.00,8.00"/>
        <lane id="-E0_1" index="1" speed="30.00" length="486.40" shape="-13.60,4.80 -500.00,4.80"/>
        <lane id="-E0_2" index="2" speed="30.00" length="486.40" shape="-13.60,1.60 -500.00,1.60"/>
    </edge>
    <edge id="-E1" from="J2" to="J1" priority="1">
        <lane id="-E1_0" index="0" speed="30.00" length="186.40" shape="8.00,-200.00 8.00,-13.60"/>
        <lane id="-E1_1" index="1" speed="30.00" length="186.40" shape="4.80,-200.00 4.80,-13.60"/>
        <lane id="-E1_2" index="2" speed="30.00" length="186.40" shape="1.60,-200.00 1.60,-13.60"/>
    </edge>
    <edge id="-E2" from="J1" to="J3" priority="1">
        <lane id="-E2_0" index="0" speed="30.00" length="486.40" shape="8.00,13.60 8.00,500.00"/>
        <lane id="-E2_1" index="1" speed="30.00" length="486.40" shape="4.80,13.60 4.80,500.00"/>
        <lane id="-E2_2" index="2" speed="30.00" length="486.40" shape="1.60,13.60 1.60,500.00"/>
    </edge>
    <edge id="-E3" from="J4" to="J1" priority="20">
        <lane id="-E3_0" index="0" speed="30.00" length="486.40" shape="500.00,8.00 13.60,8.00"/>
        <lane id="-E3_1" index="1" speed="30.00" length="486.40" shape="500.00,4.80 13.60,4.80"/>
        <lane id="-E3_2" index="2" speed="30.00" length="486.40" shape="500.00,1.60 13.60,1.60"/>
    </edge>
    <edge id="E0" from="J0" to="J1" priority="20">
        <lane id="E0_0" index="0" speed="30.00" length="486.40" shape="-500.00,-8.00 -13.60,-8.00"/>
        <lane id="E0_1" index="1" speed="30.00" length="486.40" shape="-500.00,-4.80 -13.60,-4.80"/>
        <lane id="E0_2" index="2" speed="30.00" length="486.40" shape="-500.00,-1.60 -13.60,-1.60"/>
    </edge>
    <edge id="E1" from="J1" to="J2" priority="1">
        <lane id="E1_0" index="0" speed="30.00" length="186.40" shape="-8.00,-13.60 -8.00,-200.00"/>
        <lane id="E1_1" index="1" speed="30.00" length="186.40" shape="-4.80,-13.60 -4.80,-200.00"/>
        <lane id="E1_2" index="2" speed="30.00" length="186.40" shape="-1.60,-13.60 -1.60,-200.00"/>
    </edge>
    <edge id="E2" from="J3" to="J1" priority="1">
        <lane id="E2_0" index="0" speed="30.00" length="486.40" shape="-8.00,500.00 -8.00,13.60"/>
        <lane id="E2_1" index="1" speed="30.00" length="486.40" shape="-4.80,500.00 -4.80,13.60"/>
        <lane id="E2_2" index="2" speed="30.00" length="486.40" shape="-1.60,500.00 -1.60,13.60"/>
    </edge>
    <edge id="E3" from="J1" to="J4" priority="20">
        <lane id="E3_0" index="0" speed="30.00" length="486.40" shape="13.60,-8.00 500.00,-8.00"/>
        <lane id="E3_1" index="1" speed="30.00" length="486.40" shape="13.60,-4.80 500.00,-4.80"/>
        <lane id="E3_2" index="2" speed="30.00" length="486.40" shape="13.60,-1.60 500.00,-1.60"/>
    </edge>

    <junction id="J0" type="dead_end" x="-500.00" y="0.00" incLanes="-E0_0 -E0_1 -E0_2" intLanes="" shape="-500.00,0.00 -500.00,9.60 -500.00,0.00"/>
    <junction id="J1" type="unregulated" x="0.00" y="0.00" incLanes="E2_0 E2_1 E2_2 -E3_0 -E3_1 -E3_2 -E1_0 -E1_1 -E1_2 E0_0 E0_1 E0_2" intLanes=":J1_0_0 :J1_1_0 :J1_1_1 :J1_1_2 :J1_20_0 :J1_5_0 :J1_6_0 :J1_6_1 :J1_6_2 :J1_9_0 :J1_10_0 :J1_11_0 :J1_11_1 :J1_11_2 :J1_21_0 :J1_15_0 :J1_16_0 :J1_16_1 :J1_16_2 :J1_19_0" shape="-9.60,13.60 9.60,13.60 10.04,11.38 10.60,10.60 11.38,10.04 12.38,9.71 13.60,9.60 13.60,-9.60 11.38,-10.04 10.60,-10.60 10.04,-11.38 9.71,-12.38 9.60,-13.60 -9.60,-13.60 -10.04,-11.38 -10.60,-10.60 -11.38,-10.04 -12.38,-9.71 -13.60,-9.60 -13.60,9.60 -11.38,10.04 -10.60,10.60 -10.04,11.38 -9.71,12.38">
        <request index="0"  response="00000000000000000000" foes="00000000000111000000" cont="0"/>
        <request index="1"  response="00000000000000000000" foes="11111100001111000000" cont="0"/>
        <request index="2"  response="00000000000000000000" foes="11111100001111000000" cont="0"/>
        <request index="3"  response="00000000000000000000" foes="11111100001111000000" cont="0"/>
        <request index="4"  response="00000011100000000000" foes="11110011101111000000" cont="1"/>
        <request index="5"  response="00000011100000000000" foes="00000011100000000000" cont="0"/>
        <request index="6"  response="00000111100000011111" foes="10000111100000011111" cont="0"/>
        <request index="7"  response="00000111100000011111" foes="10000111100000011111" cont="0"/>
        <request index="8"  response="00000111100000011111" foes="10000111100000011111" cont="0"/>
        <request index="9"  response="01110111100000011110" foes="01110111100000011110" cont="0"/>
        <request index="10" response="00000000000000000000" foes="01110000000000000000" cont="0"/>
        <request index="11" response="00000000000000000000" foes="11110000001111110000" cont="0"/>
        <request index="12" response="00000000000000000000" foes="11110000001111110000" cont="0"/>
        <request index="13" response="00000000000000000000" foes="11110000001111110000" cont="0"/>
        <request index="14" response="00000000000000001110" foes="11110000001111001110" cont="1"/>
        <request index="15" response="00000000000000001110" foes="00000000000000001110" cont="0"/>
        <request index="16" response="00000111110000011110" foes="00000111111000011110" cont="0"/>
        <request index="17" response="00000111110000011110" foes="00000111111000011110" cont="0"/>
        <request index="18" response="00000111110000011110" foes="00000111111000011110" cont="0"/>
        <request index="19" response="00000111100111011110" foes="00000111100111011110" cont="0"/>
    </junction>
    <junction id="J2" type="dead_end" x="0.00" y="-200.00" incLanes="E1_0 E1_1 E1_2" intLanes="" shape="0.00,-200.00 -9.60,-200.00 0.00,-200.00"/>
    <junction id="J3" type="dead_end" x="0.00" y="500.00" incLanes="-E2_0 -E2_1 -E2_2" intLanes="" shape="0.00,500.00 9.60,500.00 0.00,500.00"/>
    <junction id="J4" type="dead_end" x="500.00" y="0.00" incLanes="E3_0 E3_1 E3_2" intLanes="" shape="500.00,0.00 500.00,-9.60 500.00,0.00"/>

    <junction id=":J1_20_0" type="internal" x="-0.89" y="8.64" incLanes=":J1_4_0 -E1_0 -E1_1 -E1_2" intLanes=":J1_6_0 :J1_6_1 :J1_6_2 :J1_9_0 :J1_10_0 :J1_11_0 :J1_11_1 :J1_11_2 :J1_16_0 :J1_16_1 :J1_16_2 :J1_19_0"/>
    <junction id=":J1_21_0" type="internal" x="0.89" y="-7.62" incLanes=":J1_14_0 E2_0 E2_1 E2_2" intLanes=":J1_0_0 :J1_1_0 :J1_1_1 :J1_1_2 :J1_6_0 :J1_6_1 :J1_6_2 :J1_9_0 :J1_16_0 :J1_16_1 :J1_16_2 :J1_19_0"/>

    <connection from="-E1" to="E3" fromLane="0" toLane="0" via=":J1_10_0" dir="r" state="M"/>
    <connection from="-E1" to="-E2" fromLane="0" toLane="0" via=":J1_11_0" dir="s" state="M"/>
    <connection from="-E1" to="-E2" fromLane="1" toLane="1" via=":J1_11_1" dir="s" state="M"/>
    <connection from="-E1" to="-E2" fromLane="2" toLane="2" via=":J1_11_2" dir="s" state="M"/>
    <connection from="-E1" to="-E0" fromLane="2" toLane="1" via=":J1_14_0" dir="l" state="m"/>
    <connection from="-E3" to="-E2" fromLane="0" toLane="0" via=":J1_5_0" dir="r" state="m"/>
    <connection from="-E3" to="-E0" fromLane="0" toLane="0" via=":J1_6_0" dir="s" state="m"/>
    <connection from="-E3" to="-E0" fromLane="1" toLane="1" via=":J1_6_1" dir="s" state="m"/>
    <connection from="-E3" to="-E0" fromLane="2" toLane="2" via=":J1_6_2" dir="s" state="m"/>
    <connection from="-E3" to="E1" fromLane="2" toLane="2" via=":J1_9_0" dir="l" state="m"/>
    <connection from="E0" to="E1" fromLane="0" toLane="0" via=":J1_15_0" dir="r" state="m"/>
    <connection from="E0" to="E3" fromLane="0" toLane="0" via=":J1_16_0" dir="s" state="m"/>
    <connection from="E0" to="E3" fromLane="1" toLane="1" via=":J1_16_1" dir="s" state="m"/>
    <connection from="E0" to="E3" fromLane="2" toLane="2" via=":J1_16_2" dir="s" state="m"/>
    <connection from="E0" to="-E2" fromLane="2" toLane="2" via=":J1_19_0" dir="l" state="m"/>
    <connection from="E2" to="-E0" fromLane="0" toLane="0" via=":J1_0_0" dir="r" state="M"/>
    <connection from="E2" to="E1" fromLane="0" toLane="0" via=":J1_1_0" dir="s" state="M"/>
    <connection from="E2" to="E1" fromLane="1" toLane="1" via=":J1_1_1" dir="s" state="M"/>
    <connection from="E2" to="E1" fromLane="2" toLane="2" via=":J1_1_2" dir="s" state="M"/>
    <connection from="E2" to="E3" fromLane="2" toLane="2" via=":J1_4_0" dir="l" state="m"/>

    <connection from=":J1_0" to="-E0" fromLane="0" toLane="0" dir="r" state="M"/>
    <connection from=":J1_1" to="E1" fromLane="0" toLane="0" dir="s" state="M"/>
    <connection from=":J1_1" to="E1" fromLane="1" toLane="1" dir="s" state="M"/>
    <connection from=":J1_1" to="E1" fromLane="2" toLane="2" dir="s" state="M"/>
    <connection from=":J1_4" to="E3" fromLane="0" toLane="2" via=":J1_20_0" dir="l" state="m"/>
    <connection from=":J1_20" to="E3" fromLane="0" toLane="2" dir="l" state="M"/>
    <connection from=":J1_5" to="-E2" fromLane="0" toLane="0" dir="r" state="M"/>
    <connection from=":J1_6" to="-E0" fromLane="0" toLane="0" dir="s" state="M"/>
    <connection from=":J1_6" to="-E0" fromLane="1" toLane="1" dir="s" state="M"/>
    <connection from=":J1_6" to="-E0" fromLane="2" toLane="2" dir="s" state="M"/>
    <connection from=":J1_9" to="E1" fromLane="0" toLane="2" dir="l" state="M"/>
    <connection from=":J1_10" to="E3" fromLane="0" toLane="0" dir="r" state="M"/>
    <connection from=":J1_11" to="-E2" fromLane="0" toLane="0" dir="s" state="M"/>
    <connection from=":J1_11" to="-E2" fromLane="1" toLane="1" dir="s" state="M"/>
    <connection from=":J1_11" to="-E2" fromLane="2" toLane="2" dir="s" state="M"/>
    <connection from=":J1_14" to="-E0" fromLane="0" toLane="1" via=":J1_21_0" dir="l" state="m"/>
    <connection from=":J1_21" to="-E0" fromLane="0" toLane="1" dir="l" state="M"/>
    <connection from=":J1_15" to="E1" fromLane="0" toLane="0" dir="r" state="M"/>
    <connection from=":J1_16" to="E3" fromLane="0" toLane="0" dir="s" state="M"/>
    <connection from=":J1_16" to="E3" fromLane="1" toLane="1" dir="s" state="M"/>
    <connection from=":J1_16" to="E3" fromLane="2" toLane="2" dir="s" state="M"/>
    <connection from=":J1_19" to="-E2" fromLane="0" toLane="2" dir="l" state="M"/>

</net>
