<?xml version="1.0" encoding="UTF-8"?>

<!-- generated on 2023-05-21 23:53:27 by Eclipse SUMO netedit Version 1.12.0
<configuration xmlns:xsi="http://www.w3.org/2001/XMLSchema-instance" xsi:noNamespaceSchemaLocation="http://sumo.dlr.de/xsd/netconvertConfiguration.xsd">

    <input>
        <sumo-net-file value="D:\sumo_map\20230521\Intersection.net.xml"/>
    </input>

    <output>
        <output-file value="D:\sumo_map\20230521\Intersection.net.xml"/>
    </output>

    <processing>
        <geometry.min-radius.fix.railways value="false"/>
        <geometry.max-grade.fix value="false"/>
        <offset.disable-normalization value="true"/>
        <lefthand value="false"/>
    </processing>

    <junctions>
        <no-turnarounds value="true"/>
        <junctions.corner-detail value="5"/>
        <junctions.limit-turn-speed value="5.5"/>
        <rectangular-lane-cut value="false"/>
    </junctions>

    <pedestrian>
        <walkingareas value="false"/>
    </pedestrian>

    <report>
        <aggregate-warnings value="5"/>
    </report>

</configuration>
-->

<net version="1.9" junctionCornerDetail="5" limitTurnSpeed="5.50" xmlns:xsi="http://www.w3.org/2001/XMLSchema-instance" xsi:noNamespaceSchemaLocation="http://sumo.dlr.de/xsd/net_file.xsd">

    <location netOffset="0.00,0.00" convBoundary="-500.00,-500.00,500.00,200.00" origBoundary="-10000000000.00,-10000000000.00,10000000000.00,10000000000.00" projParameter="!"/>

    <edge id=":J1_0" function="internal">
        <lane id=":J1_0_0" index="0" speed="6.51" length="9.03" shape="-8.00,13.60 -8.35,11.15 -9.40,9.40 -11.15,8.35 -13.60,8.00"/>
    </edge>
    <edge id=":J1_1" function="internal">
        <lane id=":J1_1_0" index="0" speed="30.00" length="27.20" shape="-8.00,13.60 -8.00,-13.60"/>
        <lane id=":J1_1_1" index="1" speed="30.00" length="27.20" shape="-4.80,13.60 -4.80,-13.60"/>
        <lane id=":J1_1_2" index="2" speed="30.00" length="27.20" shape="-1.60,13.60 -1.60,-13.60"/>
    </edge>
    <edge id=":J1_4" function="internal">
        <lane id=":J1_4_0" index="0" speed="10.10" length="23.22" shape="-1.60,13.60 -0.23,8.20 3.31,3.31 8.20,-0.23 13.60,-1.60"/>
    </edge>
    <edge id=":J1_5" function="internal">
        <lane id=":J1_5_0" index="0" speed="6.51" length="9.03" shape="13.60,8.00 11.15,8.35 9.40,9.40 8.35,11.15 8.00,13.60"/>
    </edge>
    <edge id=":J1_6" function="internal">
        <lane id=":J1_6_0" index="0" speed="30.00" length="27.20" shape="13.60,8.00 -13.60,8.00"/>
        <lane id=":J1_6_1" index="1" speed="30.00" length="27.20" shape="13.60,4.80 -13.60,4.80"/>
        <lane id=":J1_6_2" index="2" speed="30.00" length="27.20" shape="13.60,1.60 -13.60,1.60"/>
    </edge>
    <edge id=":J1_9" function="internal">
        <lane id=":J1_9_0" index="0" speed="10.10" length="23.22" shape="13.60,1.60 8.20,0.23 3.31,-3.31 -0.23,-8.20 -1.60,-13.60"/>
    </edge>
    <edge id=":J1_10" function="internal">
        <lane id=":J1_10_0" index="0" speed="6.51" length="9.03" shape="8.00,-13.60 8.35,-11.15 9.40,-9.40 11.15,-8.35 13.60,-8.00"/>
    </edge>
    <edge id=":J1_11" function="internal">
        <lane id=":J1_11_0" index="0" speed="30.00" length="27.20" shape="8.00,-13.60 8.00,13.60"/>
        <lane id=":J1_11_1" index="1" speed="30.00" length="27.20" shape="4.80,-13.60 4.80,13.60"/>
        <lane id=":J1_11_2" index="2" speed="30.00" length="27.20" shape="1.60,-13.60 1.60,13.60"/>
    </edge>
    <edge id=":J1_14" function="internal">
        <lane id=":J1_14_0" index="0" speed="10.60" length="25.70" shape="1.60,-13.60 0.29,-7.37 -3.15,-1.42 -8.02,3.04 -13.60,4.80"/>
    </edge>
    <edge id=":J1_15" function="internal">
        <lane id=":J1_15_0" index="0" speed="6.51" length="9.03" shape="-13.60,-8.00 -11.15,-8.35 -9.40,-9.40 -8.35,-11.15 -8.00,-13.60"/>
    </edge>
    <edge id=":J1_16" function="internal">
        <lane id=":J1_16_0" index="0" speed="30.00" length="27.20" shape="-13.60,-8.00 13.60,-8.00"/>
        <lane id=":J1_16_1" index="1" speed="30.00" length="27.20" shape="-13.60,-4.80 13.60,-4.80"/>
        <lane id=":J1_16_2" index="2" speed="30.00" length="27.20" shape="-13.60,-1.60 13.60,-1.60"/>
    </edge>
    <edge id=":J1_19" function="internal">
        <lane id=":J1_19_0" index="0" speed="10.10" length="23.22" shape="-13.60,-1.60 -8.20,-0.23 -3.31,3.31 0.23,8.20 1.60,13.60"/>
    </edge>

    <edge id="-E0" from="J1" to="J0" priority="20">
        <lane id="-E0_0" index="0" speed="30.00" length="486.40" shape="-13.60,8.00 -500.00,8.00"/>
        <lane id="-E0_1" index="1" speed="30.00" length="486.40" shape="-13.60,4.80 -500.00,4.80"/>
        <lane id="-E0_2" index="2" speed="30.00" length="486.40" shape="-13.60,1.60 -500.00,1.60"/>
    </edge>
    <edge id="-E1" from="J2" to="J1" priority="1">
        <lane id="-E1_0" index="0" speed="30.00" length="486.40" shape="8.00,-500.00 8.00,-13.60"/>
        <lane id="-E1_1" index="1" speed="30.00" length="486.40" shape="4.80,-500.00 4.80,-13.60"/>
        <lane id="-E1_2" index="2" speed="30.00" length="486.40" shape="1.60,-500.00 1.60,-13.60"/>
    </edge>
    <edge id="-E2" from="J1" to="J3" priority="1">
        <lane id="-E2_0" index="0" speed="30.00" length="186.40" shape="8.00,13.60 8.00,200.00"/>
        <lane id="-E2_1" index="1" speed="30.00" length="186.40" shape="4.80,13.60 4.80,200.00"/>
        <lane id="-E2_2" index="2" speed="30.00" length="186.40" shape="1.60,13.60 1.60,200.00"/>
    </edge>
    <edge id="-E3" from="J4" to="J1" priority="20">
        <lane id="-E3_0" index="0" speed="30.00" length="486.40" shape="500.00,8.00 13.60,8.00"/>
        <lane id="-E3_1" index="1" speed="30.00" length="486.40" shape="500.00,4.80 13.60,4.80"/>
        <lane id="-E3_2" index="2" speed="30.00" length="486.40" shape="500.00,1.60 13.60,1.60"/>
    </edge>
    <edge id="E0" from="J0" to="J1" priority="20">
        <lane id="E0_0" index="0" speed="30.00" length="486.40" shape="-500.00,-8.00 -13.60,-8.00"/>
        <lane id="E0_1" index="1" speed="30.00" length="486.40" shape="-500.00,-4.80 -13.60,-4.80"/>
        <lane id="E0_2" index="2" speed="30.00" length="486.40" shape="-500.00,-1.60 -13.60,-1.60"/>
    </edge>
    <edge id="E1" from="J1" to="J2" priority="1">
        <lane id="E1_0" index="0" speed="30.00" length="486.40" shape="-8.00,-13.60 -8.00,-500.00"/>
        <lane id="E1_1" index="1" speed="30.00" length="486.40" shape="-4.80,-13.60 -4.80,-500.00"/>
        <lane id="E1_2" index="2" speed="30.00" length="486.40" shape="-1.60,-13.60 -1.60,-500.00"/>
    </edge>
    <edge id="E2" from="J3" to="J1" priority="1">
        <lane id="E2_0" index="0" speed="30.00" length="186.40" shape="-8.00,200.00 -8.00,13.60"/>
        <lane id="E2_1" index="1" speed="30.00" length="186.40" shape="-4.80,200.00 -4.80,13.60"/>
        <lane id="E2_2" index="2" speed="30.00" length="186.40" shape="-1.60,200.00 -1.60,13.60"/>
    </edge>
    <edge id="E3" from="J1" to="J4" priority="20">
        <lane id="E3_0" index="0" speed="30.00" length="486.40" shape="13.60,-8.00 500.00,-8.00"/>
        <lane id="E3_1" index="1" speed="30.00" length="486.40" shape="13.60,-4.80 500.00,-4.80"/>
        <lane id="E3_2" index="2" speed="30.00" length="486.40" shape="13.60,-1.60 500.00,-1.60"/>
    </edge>

    <junction id="J0" type="dead_end" x="-500.00" y="0.00" incLanes="-E0_0 -E0_1 -E0_2" intLanes="" shape="-500.00,0.00 -500.00,9.60 -500.00,0.00"/>
    <junction id="J1" type="unregulated" x="0.00" y="0.00" incLanes="E2_0 E2_1 E2_2 -E3_0 -E3_1 -E3_2 -E1_0 -E1_1 -E1_2 E0_0 E0_1 E0_2" intLanes=":J1_0_0 :J1_1_0 :J1_1_1 :J1_1_2 :J1_4_0 :J1_5_0 :J1_6_0 :J1_6_1 :J1_6_2 :J1_9_0 :J1_10_0 :J1_11_0 :J1_11_1 :J1_11_2 :J1_14_0 :J1_15_0 :J1_16_0 :J1_16_1 :J1_16_2 :J1_19_0" shape="-9.60,13.60 9.60,13.60 10.04,11.38 10.60,10.60 11.38,10.04 12.38,9.71 13.60,9.60 13.60,-9.60 11.38,-10.04 10.60,-10.60 10.04,-11.38 9.71,-12.38 9.60,-13.60 -9.60,-13.60 -10.04,-11.38 -10.60,-10.60 -11.38,-10.04 -12.38,-9.71 -13.60,-9.60 -13.60,9.60 -11.38,10.04 -10.60,10.60 -10.04,11.38 -9.71,12.38"/>
    <junction id="J2" type="dead_end" x="0.00" y="-500.00" incLanes="E1_0 E1_1 E1_2" intLanes="" shape="0.00,-500.00 -9.60,-500.00 0.00,-500.00"/>
    <junction id="J3" type="dead_end" x="0.00" y="200.00" incLanes="-E2_0 -E2_1 -E2_2" intLanes="" shape="0.00,200.00 9.60,200.00 0.00,200.00"/>
    <junction id="J4" type="dead_end" x="500.00" y="0.00" incLanes="E3_0 E3_1 E3_2" intLanes="" shape="500.00,0.00 500.00,-9.60 500.00,0.00"/>

    <connection from="-E1" to="E3" fromLane="0" toLane="0" via=":J1_10_0" dir="r" state="M"/>
    <connection from="-E1" to="-E2" fromLane="0" toLane="0" via=":J1_11_0" dir="s" state="M"/>
    <connection from="-E1" to="-E2" fromLane="1" toLane="1" via=":J1_11_1" dir="s" state="M"/>
    <connection from="-E1" to="-E2" fromLane="2" toLane="2" via=":J1_11_2" dir="s" state="M"/>
    <connection from="-E1" to="-E0" fromLane="2" toLane="1" via=":J1_14_0" dir="l" state="M"/>
    <connection from="-E3" to="-E2" fromLane="0" toLane="0" via=":J1_5_0" dir="r" state="M"/>
    <connection from="-E3" to="-E0" fromLane="0" toLane="0" via=":J1_6_0" dir="s" state="M"/>
    <connection from="-E3" to="-E0" fromLane="1" toLane="1" via=":J1_6_1" dir="s" state="M"/>
    <connection from="-E3" to="-E0" fromLane="2" toLane="2" via=":J1_6_2" dir="s" state="M"/>
    <connection from="-E3" to="E1" fromLane="2" toLane="2" via=":J1_9_0" dir="l" state="M"/>
    <connection from="E0" to="E1" fromLane="0" toLane="0" via=":J1_15_0" dir="r" state="M"/>
    <connection from="E0" to="E3" fromLane="0" toLane="0" via=":J1_16_0" dir="s" state="M"/>
    <connection from="E0" to="E3" fromLane="1" toLane="1" via=":J1_16_1" dir="s" state="M"/>
    <connection from="E0" to="E3" fromLane="2" toLane="2" via=":J1_16_2" dir="s" state="M"/>
    <connection from="E0" to="-E2" fromLane="2" toLane="2" via=":J1_19_0" dir="l" state="M"/>
    <connection from="E2" to="-E0" fromLane="0" toLane="0" via=":J1_0_0" dir="r" state="M"/>
    <connection from="E2" to="E1" fromLane="0" toLane="0" via=":J1_1_0" dir="s" state="M"/>
    <connection from="E2" to="E1" fromLane="1" toLane="1" via=":J1_1_1" dir="s" state="M"/>
    <connection from="E2" to="E1" fromLane="2" toLane="2" via=":J1_1_2" dir="s" state="M"/>
    <connection from="E2" to="E3" fromLane="2" toLane="2" via=":J1_4_0" dir="l" state="M"/>

    <connection from=":J1_0" to="-E0" fromLane="0" toLane="0" dir="r" state="M"/>
    <connection from=":J1_1" to="E1" fromLane="0" toLane="0" dir="s" state="M"/>
    <connection from=":J1_1" to="E1" fromLane="1" toLane="1" dir="s" state="M"/>
    <connection from=":J1_1" to="E1" fromLane="2" toLane="2" dir="s" state="M"/>
    <connection from=":J1_4" to="E3" fromLane="0" toLane="2" dir="l" state="M"/>
    <connection from=":J1_5" to="-E2" fromLane="0" toLane="0" dir="r" state="M"/>
    <connection from=":J1_6" to="-E0" fromLane="0" toLane="0" dir="s" state="M"/>
    <connection from=":J1_6" to="-E0" fromLane="1" toLane="1" dir="s" state="M"/>
    <connection from=":J1_6" to="-E0" fromLane="2" toLane="2" dir="s" state="M"/>
    <connection from=":J1_9" to="E1" fromLane="0" toLane="2" dir="l" state="M"/>
    <connection from=":J1_10" to="E3" fromLane="0" toLane="0" dir="r" state="M"/>
    <connection from=":J1_11" to="-E2" fromLane="0" toLane="0" dir="s" state="M"/>
    <connection from=":J1_11" to="-E2" fromLane="1" toLane="1" dir="s" state="M"/>
    <connection from=":J1_11" to="-E2" fromLane="2" toLane="2" dir="s" state="M"/>
    <connection from=":J1_14" to="-E0" fromLane="0" toLane="1" dir="l" state="M"/>
    <connection from=":J1_15" to="E1" fromLane="0" toLane="0" dir="r" state="M"/>
    <connection from=":J1_16" to="E3" fromLane="0" toLane="0" dir="s" state="M"/>
    <connection from=":J1_16" to="E3" fromLane="1" toLane="1" dir="s" state="M"/>
    <connection from=":J1_16" to="E3" fromLane="2" toLane="2" dir="s" state="M"/>
    <connection from=":J1_19" to="-E2" fromLane="0" toLane="2" dir="l" state="M"/>

</net>
